Version 4
SHEET 1 1060 680
WIRE 400 -16 176 -16
WIRE 512 -16 464 -16
WIRE 176 64 176 -16
WIRE 320 64 176 64
WIRE 512 64 512 -16
WIRE 512 64 400 64
WIRE -96 144 -160 144
WIRE -64 144 -96 144
WIRE 368 144 368 128
WIRE 784 144 784 128
WIRE 368 176 368 144
WIRE 784 176 784 144
WIRE 128 192 80 192
WIRE 176 192 176 64
WIRE 176 192 128 192
WIRE 336 192 176 192
WIRE 752 192 720 192
WIRE 512 208 512 64
WIRE 512 208 400 208
WIRE 944 208 816 208
WIRE 992 208 944 208
WIRE -160 224 -160 144
WIRE 80 224 80 192
WIRE 336 224 288 224
WIRE 512 224 512 208
WIRE 624 224 512 224
WIRE 752 224 624 224
WIRE 512 256 512 224
WIRE 992 256 992 208
WIRE 368 272 368 240
WIRE 784 288 784 240
WIRE 656 304 656 288
WIRE 80 336 80 304
WIRE 288 336 288 224
WIRE -160 352 -160 304
WIRE 656 400 656 384
WIRE 720 400 720 192
WIRE 720 400 656 400
WIRE 992 400 992 336
WIRE 512 416 512 336
WIRE 656 416 656 400
WIRE 656 560 656 496
FLAG -160 352 0
FLAG -96 144 +V
FLAG 368 144 +V
FLAG 288 336 0
FLAG 80 336 0
FLAG 512 416 0
FLAG 368 272 0
FLAG 784 288 0
FLAG 784 144 +V
FLAG 656 288 +V
FLAG 656 560 0
FLAG 992 400 0
FLAG 128 192 in
FLAG 624 224 out
FLAG 944 208 COMP
FLAG 720 400 TRIGGER
SYMBOL voltage -160 208 R0
SYMATTR InstName V1
SYMATTR Value 3
SYMBOL res 416 48 R90
WINDOW 0 0 56 VBottom 2
WINDOW 3 32 56 VTop 2
SYMATTR InstName R1
SYMATTR Value 1MEG
SYMBOL current 80 224 R0
WINDOW 3 -54 89 Left 2
WINDOW 123 24 28 Left 2
WINDOW 39 0 0 Left 2
SYMATTR Value 2µ
SYMATTR InstName I1
SYMBOL res 496 240 R0
SYMATTR InstName R2
SYMATTR Value 10k
SYMBOL res 640 288 R0
SYMATTR InstName R3
SYMATTR Value 7k
SYMBOL res 640 400 R0
SYMATTR InstName R4
SYMATTR Value 8k
SYMBOL res 976 240 R0
SYMATTR InstName R5
SYMATTR Value 10k
SYMBOL Comparators\\LTC6752 784 144 R0
SYMATTR InstName U2
SYMBOL cap 464 -32 R90
WINDOW 0 0 32 VBottom 2
WINDOW 3 32 32 VTop 2
SYMATTR InstName C1
SYMATTR Value 50p
SYMBOL Opamps\\UniversalOpamp2 368 208 R0
WINDOW 3 28 27 Left 2
SYMATTR InstName U3
SYMATTR SpiceModel ""
SYMATTR Value2 ""
SYMATTR SpiceLine ""
SYMATTR SpiceLine2 ""
SYMATTR Value MCP6401
TEXT -256 8 Left 2 ;100p and 1M, or
TEXT -248 528 Left 2 !.lib MCP6401.sub
TEXT -258 584 Left 2 !.op
